.model NMOS28 NMOS(Level=14 Version=4.7 Tnom=25 Toxe=1.4n Toxp=1.0n Toxm=1.4n Dtox=0.4n Epsrox=7.5 Wint=5n Lint=2n Ll=0 Wl=0 Lln=1 Wln=1 Lw=0 Ww=0 Lwn=1 Wwn=1 Lwl=0 Wwl=0 Vth0=0.35 K1=0.4 K2=0.01 K3=0 K3b=0 W0=2.5e-6 Dvt0=1.8 Dvt1=0.52 Dvt2=0.032 Dvt0w=0 Dvt1w=0 Dvt2w=0 Dsub=2 Minv=0.05 Voffl=0 Dvtp0=0 Dvtp1=0 Lpe0=5.75e-8 Lpeb=2.3e-10 Vsat=8e4 A0=1.0 Ags=0.5 A1=0 A2=1 B0=2.5e-6 B1=5e-6 Keta=0.047 Dwg=0 Dwb=0 Pclm=0.12 Pdiblc1=0.39 Pdiblc2=0.0086 Pdiblcb=0 Drout=0.56 Pvag=1e-12 Delta=0.01 Pscbe1=8.14e8 Pscbe2=5e-7 Fprout=0.2 Pdits=0.08 Pditsd=0.23 Pditsl=2.3e6 Alpha0=0 Alpha1=0 Beta0=30 Agidl=0 Bgidl=2.3e9 Cgidl=0.0002 Egidl=0.8 Cgso=1.1e-10 Cgdo=1.1e-10 Cgbo=2.56e-11 Xpart=0 Ngcon=1 Tcj=0.001 Tpb=0.005 Tcjsw=0.001 Tpbsw=0.005 Tcjswg=0.001 Tpbswg=0.005 Kt1=-0.11 Kt1l=0 Kt2=0.022 Ute=-1.5 Ua1=4.31e-9 Ub1=7.61e-18 Uc1=-5.6e-11 Prt=0 At=33000 Xrcrg1=12 Xrcrg2=5 Noia=1e+20 Noib=50000 Noic=-1.4e-12 Em=4.1e7 Ef=1 Af=1 Lintnoi=0)
.model PMOS28 PMOS(Level=14 Version=4.7 Tnom=25 Toxe=1.4n Toxp=1.0n Toxm=1.4n Dtox=0.4n Epsrox=7.5 Wint=5n Lint=2n Ll=0 Wl=0 Lln=1 Wln=1 Lw=0 Ww=0 Lwn=1 Wwn=1 Lwl=0 Wwl=0 Vth0=-0.4 K1=0.35 K2=-0.01 K3=0 K3b=0 W0=2.5e-6 Dvt0=1.4 Dvt1=0.5 Dvt2=0.032 Dvt0w=0 Dvt1w=0 Dvt2w=0 Dsub=2 Minv=0.05 Voffl=0 Dvtp0=0 Dvtp1=0 Lpe0=5.75e-8 Lpeb=2.3e-10 Vsat=6e4 A0=1.2 Ags=0.6 A1=0 A2=1 B0=3e-6 B1=5e-6 Keta=0.025 Dwg=0 Dwb=0 Pclm=0.08 Pdiblc1=0.45 Pdiblc2=0.01 Pdiblcb=0 Drout=0.4 Pvag=1e-12 Delta=0.01 Pscbe1=4.24e8 Pscbe2=5e-7 Fprout=0.2 Pdits=0.08 Pditsd=0.18 Pditsl=2.3e6 Alpha0=0 Alpha1=0 Beta0=20 Agidl=0 Bgidl=2.3e9 Cgidl=0.0002 Egidl=0.8 Cgso=1.1e-10 Cgdo=1.1e-10 Cgbo=2.56e-11 Xpart=0 Ngcon=1 Tcj=0.001 Tpb=0.005 Tcjsw=0.001 Tpbsw=0.005 Tcjswg=0.001 Tpbswg=0.005 Kt1=-0.11 Kt1l=0 Kt2=0.022 Ute=-1.5 Ua1=4.31e-9 Ub1=7.61e-18 Uc1=-5.6e-11 Prt=0 At=33000 Xrcrg1=12 Xrcrg2=5 Noia=1e+20 Noib=50000 Noic=-1.4e-12 Em=4.1e7 Ef=1 Af=1 Lintnoi=0)