Version 4
SHEET 1 3748 1968
WIRE 144 -208 -32 -208
WIRE 2288 -208 2112 -208
WIRE 144 -160 144 -208
WIRE 2112 -160 2112 -208
WIRE 2288 -96 2288 -208
WIRE 2288 -96 2240 -96
WIRE -32 -80 -32 -208
WIRE -16 -80 -32 -80
WIRE 2288 -80 2288 -96
WIRE -16 -32 -16 -80
WIRE -16 -32 -32 -32
WIRE 144 -32 144 -80
WIRE 2112 -32 2112 -80
WIRE 2240 -32 2240 -96
WIRE 2288 -32 2240 -32
WIRE -80 0 -304 0
WIRE 2432 0 2336 0
WIRE -32 80 -32 16
WIRE 112 80 -32 80
WIRE 256 80 192 80
WIRE 320 80 256 80
WIRE 544 80 400 80
WIRE 688 80 544 80
WIRE 944 80 768 80
WIRE 1328 80 1040 80
WIRE 1712 80 1408 80
WIRE 1856 80 1712 80
WIRE 1984 80 1936 80
WIRE 2064 80 1984 80
WIRE 2288 80 2288 16
WIRE 2288 80 2144 80
WIRE -912 96 -1456 96
WIRE -896 96 -912 96
WIRE -304 96 -304 0
WIRE -304 96 -896 96
WIRE -32 96 -32 80
WIRE 2288 96 2288 80
WIRE 2432 96 2432 0
WIRE 3152 96 2432 96
WIRE 3712 96 3152 96
WIRE 944 112 848 112
WIRE 1120 112 1040 112
WIRE 3152 112 3152 96
WIRE 0 144 -32 144
WIRE 2288 144 2272 144
WIRE 544 160 544 80
WIRE 1712 160 1712 80
WIRE -304 176 -304 96
WIRE -80 176 -304 176
WIRE 848 176 848 112
WIRE 1120 176 1120 112
WIRE 2432 176 2432 96
WIRE 2432 176 2336 176
WIRE 0 192 0 144
WIRE 0 192 -32 192
WIRE 2272 192 2272 144
WIRE 2288 192 2272 192
WIRE -32 224 -32 192
WIRE 2288 224 2288 192
WIRE 144 256 -32 256
WIRE 2288 256 2112 256
WIRE 144 272 144 256
WIRE 2112 272 2112 256
WIRE -1456 288 -1456 96
WIRE -32 288 -32 256
WIRE 0 288 -32 288
WIRE 2288 288 2288 256
WIRE 2288 288 2256 288
WIRE 3712 288 3712 96
WIRE -32 304 -32 288
WIRE 2288 304 2288 288
WIRE 0 352 0 288
WIRE 0 352 -32 352
WIRE 2256 352 2256 288
WIRE 2288 352 2256 352
WIRE -80 384 -320 384
WIRE 2432 384 2336 384
WIRE 144 400 144 352
WIRE 2112 400 2112 352
WIRE -32 464 -32 400
WIRE 112 464 -32 464
WIRE 256 464 192 464
WIRE 320 464 256 464
WIRE 544 464 544 240
WIRE 544 464 400 464
WIRE 1712 464 1712 240
WIRE 1856 464 1712 464
WIRE 1984 464 1936 464
WIRE 2064 464 1984 464
WIRE 2288 464 2288 400
WIRE 2288 464 2144 464
WIRE -1456 480 -1456 368
WIRE -32 480 -32 464
WIRE 2288 480 2288 464
WIRE 2432 480 2432 384
WIRE 2576 480 2432 480
WIRE 3712 480 3712 368
WIRE 16 528 -32 528
WIRE 2288 528 2256 528
WIRE -320 560 -320 384
WIRE -80 560 -320 560
WIRE 2432 560 2432 480
WIRE 2432 560 2336 560
WIRE 16 576 16 528
WIRE 16 576 -32 576
WIRE 2256 576 2256 528
WIRE 2288 576 2256 576
WIRE -32 624 -32 576
WIRE 352 624 224 624
WIRE 2032 624 1904 624
WIRE 2288 624 2288 576
WIRE 224 688 224 624
WIRE 2032 688 2032 624
WIRE 352 800 352 624
WIRE 352 800 320 800
WIRE 224 816 224 768
WIRE 2032 816 2032 768
WIRE 1904 832 1904 624
WIRE 1952 832 1904 832
WIRE 352 848 352 800
WIRE 1904 848 1904 832
WIRE 320 896 320 800
WIRE 352 896 320 896
WIRE 1952 896 1952 832
WIRE 1952 896 1904 896
WIRE 544 928 544 464
WIRE 544 928 400 928
WIRE 1712 928 1712 464
WIRE 1856 928 1712 928
WIRE 352 1008 352 944
WIRE 1904 1008 1904 944
WIRE 352 1056 352 1008
WIRE 352 1056 160 1056
WIRE 1904 1056 1904 1008
WIRE 2096 1056 1904 1056
WIRE 352 1088 352 1056
WIRE 1904 1088 1904 1056
WIRE 2576 1088 2576 480
WIRE 2848 1088 2576 1088
WIRE 3152 1088 3152 112
WIRE 3152 1088 2912 1088
WIRE -912 1120 -912 96
WIRE -640 1120 -912 1120
WIRE -320 1120 -320 560
WIRE -320 1120 -576 1120
WIRE 352 1136 320 1136
WIRE 1936 1136 1904 1136
WIRE 544 1168 544 928
WIRE 544 1168 400 1168
WIRE 1712 1168 1712 928
WIRE 1856 1168 1712 1168
WIRE 320 1200 320 1136
WIRE 352 1200 352 1184
WIRE 352 1200 320 1200
WIRE 1904 1200 1904 1184
WIRE 1936 1200 1936 1136
WIRE 1936 1200 1904 1200
WIRE 352 1248 352 1200
WIRE 1904 1248 1904 1200
WIRE 160 1424 160 1056
WIRE 400 1424 160 1424
WIRE 544 1424 544 1168
WIRE 544 1424 480 1424
WIRE 1712 1424 1712 1168
WIRE 1776 1424 1712 1424
WIRE 2096 1424 2096 1056
WIRE 2096 1424 1856 1424
FLAG 848 176 0
FLAG 1120 176 0
FLAG 224 816 0
FLAG 352 1248 0
FLAG 352 1008 Vouta
FLAG 544 928 Vina
FLAG 144 -32 0
FLAG 144 400 0
FLAG -32 224 0
FLAG -32 624 0
FLAG -1456 480 0
FLAG 2032 816 0
FLAG 1904 1248 0
FLAG 1904 1008 Voutb
FLAG 1712 928 Vinb
FLAG 2112 -32 0
FLAG 2112 400 0
FLAG 2288 224 0
FLAG 2288 624 0
FLAG 3712 480 0
FLAG 544 80 Vpada
FLAG 256 80 Vdrva
FLAG 256 464 Vrepa
FLAG -896 96 Dataa
FLAG 1984 80 Vdrvb
FLAG 1984 464 Vrepb
FLAG 3152 112 Datab
FLAG 1712 80 Vpadb
SYMBOL voltage -1456 272 R0
WINDOW 3 24 152 Left 2
WINDOW 123 0 0 Left 0
WINDOW 39 24 124 Left 2
SYMATTR Value PWL file=prbs7_a.txt
SYMATTR InstName V1
SYMBOL res 416 64 R90
WINDOW 0 0 56 VBottom 2
WINDOW 3 32 56 VTop 2
SYMATTR InstName Rs
SYMATTR Value 22.5
SYMBOL res 528 144 R0
SYMATTR InstName Rh1
SYMATTR Value 190
SYMBOL res 416 448 R90
WINDOW 0 0 56 VBottom 2
WINDOW 3 32 56 VTop 2
SYMATTR InstName Rh2
SYMATTR Value 250
SYMBOL res 784 64 R90
WINDOW 0 0 56 VBottom 2
WINDOW 3 32 56 VTop 2
SYMATTR InstName Rch
SYMATTR Value 10.75
SYMBOL tline 992 96 R0
SYMATTR InstName T1
SYMATTR Value Td=8p Z0=40
SYMBOL voltage 224 672 R0
WINDOW 123 0 0 Left 0
WINDOW 39 0 0 Left 0
SYMATTR InstName VDD
SYMATTR Value 0.75
SYMBOL res 496 1408 R90
WINDOW 0 0 56 VBottom 2
WINDOW 3 32 56 VTop 2
SYMATTR InstName Rf
SYMATTR Value 1.2k
SYMBOL voltage 144 -176 R0
WINDOW 123 0 0 Left 0
WINDOW 39 0 0 Left 0
SYMATTR InstName V2
SYMATTR Value 0.75
SYMBOL voltage 144 256 R0
WINDOW 123 0 0 Left 0
WINDOW 39 0 0 Left 0
SYMATTR InstName V3
SYMATTR Value 0.75
SYMBOL res 208 64 R90
WINDOW 0 0 56 VBottom 2
WINDOW 3 32 56 VTop 2
SYMATTR InstName Rdrv
SYMATTR Value 22.5
SYMBOL res 208 448 R90
WINDOW 0 0 56 VBottom 2
WINDOW 3 32 56 VTop 2
SYMATTR InstName Rrep
SYMATTR Value 124
SYMBOL voltage 3712 272 M0
WINDOW 3 24 152 Left 2
WINDOW 123 0 0 Left 0
WINDOW 39 24 124 Left 2
SYMATTR Value PWL file=prbs7_b.txt
SYMATTR InstName V5
SYMBOL res 1840 64 M90
WINDOW 0 0 56 VBottom 2
WINDOW 3 32 56 VTop 2
SYMATTR InstName Rs1
SYMATTR Value 22.5
SYMBOL res 1728 144 M0
SYMATTR InstName Rh3
SYMATTR Value 190
SYMBOL res 1840 448 M90
WINDOW 0 0 56 VBottom 2
WINDOW 3 32 56 VTop 2
SYMATTR InstName Rh4
SYMATTR Value 250
SYMBOL voltage 2032 672 M0
WINDOW 123 0 0 Left 0
WINDOW 39 0 0 Left 0
SYMATTR InstName VDD1
SYMATTR Value 0.75
SYMBOL res 1760 1408 M90
WINDOW 0 0 56 VBottom 2
WINDOW 3 32 56 VTop 2
SYMATTR InstName Rf1
SYMATTR Value 1.2k
SYMBOL voltage 2112 -176 M0
WINDOW 123 0 0 Left 0
WINDOW 39 0 0 Left 0
SYMATTR InstName V6
SYMATTR Value 0.75
SYMBOL voltage 2112 256 M0
WINDOW 123 0 0 Left 0
WINDOW 39 0 0 Left 0
SYMATTR InstName V7
SYMATTR Value 0.75
SYMBOL res 2048 64 M90
WINDOW 0 0 56 VBottom 2
WINDOW 3 32 56 VTop 2
SYMATTR InstName Rdrv1
SYMATTR Value 22.5
SYMBOL res 2048 448 M90
WINDOW 0 0 56 VBottom 2
WINDOW 3 32 56 VTop 2
SYMATTR InstName Rrep1
SYMATTR Value 124
SYMBOL Digital\\inv -816 -272 R0
WINDOW 3 8 60 Left 2
SYMATTR InstName A2
SYMATTR Value .param Vhigh=0.75 Vlow=0
SYMBOL Digital\\inv -640 1056 R0
WINDOW 3 8 60 Left 2
SYMATTR InstName A1
SYMATTR Value .param Vhigh=0.75 Vlow=0
SYMBOL Digital\\inv 2912 1024 M0
WINDOW 3 8 60 Left 2
SYMATTR InstName A3
SYMATTR Value .param Vhigh=0.75 Vlow=0
SYMBOL pmos4 -80 -80 R0
SYMATTR InstName M17
SYMATTR Value2 l=45n w=1.0u
SYMBOL nmos4 -80 96 R0
SYMATTR InstName M1
SYMATTR Value2 l=45n w=1.0u
SYMBOL res 1424 64 R90
WINDOW 0 0 56 VBottom 2
WINDOW 3 32 56 VTop 2
SYMATTR InstName Rch1
SYMATTR Value 10.75
SYMBOL pmos4 -80 304 R0
SYMATTR InstName M2
SYMATTR Value2 l=45n w=1.0u
SYMBOL pmos4 400 848 M0
SYMATTR InstName M5
SYMATTR Value2 l=45n w=1.0u
SYMBOL pmos4 2336 304 M0
SYMATTR InstName M6
SYMATTR Value2 l=45n w=1.0u
SYMBOL pmos4 2336 -80 M0
SYMATTR InstName M10
SYMATTR Value2 l=45n w=1.0u
SYMBOL pmos4 1856 848 R0
SYMATTR InstName M11
SYMATTR Value2 l=45n w=1.0u
SYMBOL nmos4 -80 480 R0
SYMATTR InstName M3
SYMATTR Value2 l=45n w=1.0u
SYMBOL nmos4 400 1088 M0
SYMATTR InstName M4
SYMATTR Value2 l=45n w=1.0u
SYMBOL nmos4 2336 480 M0
SYMATTR InstName M7
SYMATTR Value2 l=45n w=1.0u
SYMBOL nmos4 2336 96 M0
SYMATTR InstName M8
SYMATTR Value2 l=45n w=1.0u
SYMBOL nmos4 1856 1088 R0
SYMATTR InstName M9
SYMATTR Value2 l=45n w=1.0u
TEXT -1488 1472 Left 2 !.tran 2540p
TEXT -944 1280 Left 2 !.model M1 nmos level=54 version=4.7 tox=1.0n nch=1 u0=250 vsat=1.2e7 vth0=0.35\n+ rdsw=100 vdsat=0.1 cox=3e-2 cgso=1e-10 cgdo=1e-10\n.model M3 nmos level=54 version=4.7 tox=1.0n nch=1 u0=250 vsat=1.2e7 vth0=0.35\n+ rdsw=100 vdsat=0.1 cox=3e-2 cgso=1e-10 cgdo=1e-10\n.model M4 nmos level=54 version=4.7 tox=1.0n nch=1 u0=250 vsat=1.2e7 vth0=0.35\n+ rdsw=100 vdsat=0.1 cox=3e-2 cgso=1e-10 cgdo=1e-10\n.model M7 nmos level=54 version=4.7 tox=1.0n nch=1 u0=250 vsat=1.2e7 vth0=0.35\n+ rdsw=100 vdsat=0.1 cox=3e-2 cgso=1e-10 cgdo=1e-10\n.model M8 nmos level=54 version=4.7 tox=1.0n nch=1 u0=250 vsat=1.2e7 vth0=0.35\n+ rdsw=100 vdsat=0.1 cox=3e-2 cgso=1e-10 cgdo=1e-10\n.model M9 nmos level=54 version=4.7 tox=1.0n nch=1 u0=250 vsat=1.2e7 vth0=0.35\n+ rdsw=100 vdsat=0.1 cox=3e-2 cgso=1e-10 cgdo=1e-10\n \n.model M17 pmos level=54 version=4.7 tox=1.0n nch=1 u0=90 vsat=1.0e7 vth0=-0.35\n+ rdsw=100 vdsat=0.1 cox=3e-2 cgso=1e-10 cgdo=1e-10\n.model M20 pmos level=54 version=4.7 tox=1.0n nch=1 u0=90 vsat=1.0e7 vth0=-0.35\n+ rdsw=100 vdsat=0.1 cox=3e-2 cgso=1e-10 cgdo=1e-10\n.model M22 pmos level=54 version=4.7 tox=1.0n nch=1 u0=90 vsat=1.0e7 vth0=-0.35\n+ rdsw=100 vdsat=0.1 cox=3e-2 cgso=1e-10 cgdo=1e-10\n.model M18 pmos level=54 version=4.7 tox=1.0n nch=1 u0=90 vsat=1.0e7 vth0=-0.35\n+ rdsw=100 vdsat=0.1 cox=3e-2 cgso=1e-10 cgdo=1e-10\n.model M19 pmos level=54 version=4.7 tox=1.0n nch=1 u0=90 vsat=1.0e7 vth0=-0.35\n+ rdsw=100 vdsat=0.1 cox=3e-2 cgso=1e-10 cgdo=1e-10\n.model M21 pmos level=54 version=4.7 tox=1.0n nch=1 u0=90 vsat=1.0e7 vth0=-0.35\n+ rdsw=100 vdsat=0.1 cox=3e-2 cgso=1e-10 cgdo=1e-10
