Version 4
SHEET 1 3748 1492
WIRE 144 -208 -32 -208
WIRE 2288 -208 2112 -208
WIRE 144 -160 144 -208
WIRE 2112 -160 2112 -208
WIRE -32 -80 -32 -208
WIRE 2288 -80 2288 -208
WIRE -80 -64 -304 -64
WIRE 2432 -64 2336 -64
WIRE 144 -32 144 -80
WIRE 2112 -32 2112 -80
WIRE -32 80 -32 16
WIRE 112 80 -32 80
WIRE 256 80 192 80
WIRE 320 80 256 80
WIRE 544 80 400 80
WIRE 688 80 544 80
WIRE 944 80 768 80
WIRE 1488 80 1040 80
WIRE 1712 80 1568 80
WIRE 1856 80 1712 80
WIRE 1984 80 1936 80
WIRE 2064 80 1984 80
WIRE 2288 80 2288 16
WIRE 2288 80 2144 80
WIRE -912 96 -1456 96
WIRE -896 96 -912 96
WIRE -656 96 -896 96
WIRE -304 96 -304 -64
WIRE -304 96 -592 96
WIRE -32 96 -32 80
WIRE 2288 96 2288 80
WIRE 2432 96 2432 -64
WIRE 2832 96 2432 96
WIRE 3152 96 2896 96
WIRE 3712 96 3152 96
WIRE 944 112 848 112
WIRE 1120 112 1040 112
WIRE 3152 112 3152 96
WIRE 544 160 544 80
WIRE 1712 160 1712 80
WIRE -304 176 -304 96
WIRE -80 176 -304 176
WIRE 848 176 848 112
WIRE 1120 176 1120 112
WIRE 2432 176 2432 96
WIRE 2432 176 2336 176
WIRE -32 224 -32 192
WIRE 2288 224 2288 192
WIRE 144 256 -32 256
WIRE 2288 256 2112 256
WIRE 144 272 144 256
WIRE 2112 272 2112 256
WIRE -1456 288 -1456 96
WIRE 3712 288 3712 96
WIRE -32 304 -32 256
WIRE 2288 304 2288 256
WIRE -80 320 -320 320
WIRE 2432 320 2336 320
WIRE 144 400 144 352
WIRE 2112 400 2112 352
WIRE -480 464 -624 464
WIRE -32 464 -32 400
WIRE 112 464 -32 464
WIRE 256 464 192 464
WIRE 320 464 256 464
WIRE 544 464 544 240
WIRE 544 464 400 464
WIRE 1712 464 1712 240
WIRE 1856 464 1712 464
WIRE 1984 464 1936 464
WIRE 2064 464 1984 464
WIRE 2288 464 2288 400
WIRE 2288 464 2144 464
WIRE 2880 464 2736 464
WIRE -1456 480 -1456 368
WIRE -32 480 -32 464
WIRE 2288 480 2288 464
WIRE 2432 480 2432 320
WIRE 2576 480 2432 480
WIRE 3712 480 3712 368
WIRE -480 512 -480 464
WIRE 2736 512 2736 464
WIRE -320 560 -320 320
WIRE -80 560 -320 560
WIRE 2432 560 2432 480
WIRE 2432 560 2336 560
WIRE -624 608 -624 464
WIRE 2880 608 2880 464
WIRE -32 624 -32 576
WIRE 352 624 224 624
WIRE 2032 624 1904 624
WIRE 2288 624 2288 576
WIRE -480 640 -480 592
WIRE 2736 640 2736 592
WIRE 224 688 224 624
WIRE 2032 688 2032 624
WIRE -624 752 -624 704
WIRE 2880 752 2880 704
WIRE 224 816 224 768
WIRE 2032 816 2032 768
WIRE 352 848 352 624
WIRE 1904 848 1904 624
WIRE 544 864 544 464
WIRE 544 864 400 864
WIRE 1712 864 1712 464
WIRE 1856 864 1712 864
WIRE -624 896 -624 848
WIRE 2880 896 2880 848
WIRE 544 928 544 864
WIRE 1712 928 1712 864
WIRE 352 1008 352 944
WIRE 1904 1008 1904 944
WIRE 352 1056 352 1008
WIRE 352 1056 160 1056
WIRE 1904 1056 1904 1008
WIRE 2096 1056 1904 1056
WIRE 352 1088 352 1056
WIRE 1904 1088 1904 1056
WIRE 2576 1088 2576 480
WIRE 3152 1088 3152 112
WIRE 3152 1088 2576 1088
WIRE -912 1120 -912 96
WIRE -320 1120 -320 560
WIRE -320 1120 -912 1120
WIRE 544 1168 544 928
WIRE 544 1168 400 1168
WIRE 1712 1168 1712 928
WIRE 1856 1168 1712 1168
WIRE 352 1248 352 1184
WIRE 1904 1248 1904 1184
WIRE 160 1424 160 1056
WIRE 400 1424 160 1424
WIRE 544 1424 544 1168
WIRE 544 1424 480 1424
WIRE 1712 1424 1712 1168
WIRE 1776 1424 1712 1424
WIRE 2096 1424 2096 1056
WIRE 2096 1424 1856 1424
FLAG 848 176 0
FLAG 1120 176 0
FLAG 224 816 0
FLAG 352 1248 0
FLAG 352 1008 Vouta
FLAG 544 928 Vina
FLAG 144 -32 0
FLAG 144 400 0
FLAG -32 224 0
FLAG -32 624 0
FLAG -480 640 0
FLAG -624 896 0
FLAG -1456 480 0
FLAG 2032 816 0
FLAG 1904 1248 0
FLAG 1904 1008 Voutb
FLAG 1712 928 Vinb
FLAG 2112 -32 0
FLAG 2112 400 0
FLAG 2288 224 0
FLAG 2288 624 0
FLAG 2736 640 0
FLAG 2880 896 0
FLAG 3712 480 0
FLAG 544 80 Vpada
FLAG 256 80 Vdrva
FLAG 256 464 Vrepa
FLAG -896 96 Dataa
FLAG 1984 80 Vdrvb
FLAG 1984 464 Vrepb
FLAG 3152 112 Datab
SYMBOL voltage -1456 272 R0
WINDOW 3 24 152 Left 2
WINDOW 123 0 0 Left 0
WINDOW 39 24 124 Left 2
SYMATTR Value PWL file=prbs7_a.txt
SYMATTR InstName V1
SYMBOL res 416 64 R90
WINDOW 0 0 56 VBottom 2
WINDOW 3 32 56 VTop 2
SYMATTR InstName Rs
SYMATTR Value 22.5
SYMBOL res 528 144 R0
SYMATTR InstName Rh1
SYMATTR Value 190
SYMBOL res 416 448 R90
WINDOW 0 0 56 VBottom 2
WINDOW 3 32 56 VTop 2
SYMATTR InstName Rh2
SYMATTR Value 250
SYMBOL res 784 64 R90
WINDOW 0 0 56 VBottom 2
WINDOW 3 32 56 VTop 2
SYMATTR InstName Rch
SYMATTR Value 21.5
SYMBOL tline 992 96 R0
SYMATTR InstName T1
SYMATTR Value Td=8p Z0=40
SYMBOL nmos 400 1088 M0
SYMATTR InstName M2
SYMBOL voltage 224 672 R0
WINDOW 123 0 0 Left 0
WINDOW 39 0 0 Left 0
SYMATTR InstName VDD
SYMATTR Value 0.75
SYMBOL res 496 1408 R90
WINDOW 0 0 56 VBottom 2
WINDOW 3 32 56 VTop 2
SYMATTR InstName Rf
SYMATTR Value 1.2k
SYMBOL nmos -80 96 R0
SYMATTR InstName M5
SYMBOL nmos -80 480 R0
SYMATTR InstName M6
SYMBOL voltage 144 -176 R0
WINDOW 123 0 0 Left 0
WINDOW 39 0 0 Left 0
SYMATTR InstName V2
SYMATTR Value 0.75
SYMBOL voltage 144 256 R0
WINDOW 123 0 0 Left 0
WINDOW 39 0 0 Left 0
SYMATTR InstName V3
SYMATTR Value 0.75
SYMBOL res 208 64 R90
WINDOW 0 0 56 VBottom 2
WINDOW 3 32 56 VTop 2
SYMATTR InstName Rdrv
SYMATTR Value 22.5
SYMBOL res 208 448 R90
WINDOW 0 0 56 VBottom 2
WINDOW 3 32 56 VTop 2
SYMATTR InstName Rrep
SYMATTR Value 124
SYMBOL pmos -672 608 R0
SYMATTR InstName M7
SYMBOL nmos -672 752 R0
SYMATTR InstName M8
SYMBOL voltage -480 496 R0
WINDOW 123 0 0 Left 0
WINDOW 39 0 0 Left 0
SYMATTR InstName V4
SYMATTR Value 0.75
SYMBOL voltage 3712 272 M0
WINDOW 3 24 152 Left 2
WINDOW 123 0 0 Left 0
WINDOW 39 24 124 Left 2
SYMATTR Value PWL file=prbs7_b.txt
SYMATTR InstName V5
SYMBOL res 1840 64 M90
WINDOW 0 0 56 VBottom 2
WINDOW 3 32 56 VTop 2
SYMATTR InstName Rs1
SYMATTR Value 22.5
SYMBOL res 1728 144 M0
SYMATTR InstName Rh3
SYMATTR Value 190
SYMBOL res 1840 448 M90
WINDOW 0 0 56 VBottom 2
WINDOW 3 32 56 VTop 2
SYMATTR InstName Rh4
SYMATTR Value 250
SYMBOL res 1472 64 M90
WINDOW 0 0 56 VBottom 2
WINDOW 3 32 56 VTop 2
SYMATTR InstName Rch1
SYMATTR Value 21.5
SYMBOL nmos 1856 1088 R0
SYMATTR InstName M10
SYMBOL voltage 2032 672 M0
WINDOW 123 0 0 Left 0
WINDOW 39 0 0 Left 0
SYMATTR InstName VDD1
SYMATTR Value 0.75
SYMBOL res 1760 1408 M90
WINDOW 0 0 56 VBottom 2
WINDOW 3 32 56 VTop 2
SYMATTR InstName Rf1
SYMATTR Value 1.2k
SYMBOL nmos 2336 96 M0
SYMATTR InstName M13
SYMBOL nmos 2336 480 M0
SYMATTR InstName M14
SYMBOL voltage 2112 -176 M0
WINDOW 123 0 0 Left 0
WINDOW 39 0 0 Left 0
SYMATTR InstName V6
SYMATTR Value 0.75
SYMBOL voltage 2112 256 M0
WINDOW 123 0 0 Left 0
WINDOW 39 0 0 Left 0
SYMATTR InstName V7
SYMATTR Value 0.75
SYMBOL res 2048 64 M90
WINDOW 0 0 56 VBottom 2
WINDOW 3 32 56 VTop 2
SYMATTR InstName Rdrv1
SYMATTR Value 22.5
SYMBOL res 2048 448 M90
WINDOW 0 0 56 VBottom 2
WINDOW 3 32 56 VTop 2
SYMATTR InstName Rrep1
SYMATTR Value 124
SYMBOL pmos 2928 608 M0
SYMATTR InstName M15
SYMBOL nmos 2928 752 M0
SYMATTR InstName M16
SYMBOL voltage 2736 496 M0
WINDOW 123 0 0 Left 0
WINDOW 39 0 0 Left 0
SYMATTR InstName V8
SYMATTR Value 0.75
SYMBOL pmos -80 16 M180
SYMATTR InstName M3
SYMBOL pmos -80 400 M180
SYMATTR InstName M4
SYMBOL pmos 2336 16 R180
SYMATTR InstName M11
SYMBOL pmos 2336 400 R180
SYMATTR InstName M12
SYMBOL pmos 1856 944 M180
SYMATTR InstName M1
SYMBOL pmos 400 944 R180
SYMATTR InstName M9
SYMBOL Digital\\inv -656 32 R0
WINDOW 3 8 60 Left 2
SYMATTR InstName A3
SYMATTR Value .param Vhigh=0.75 Vlow=0
SYMBOL Digital\\inv 2896 32 M0
WINDOW 3 8 60 Left 2
SYMATTR InstName A1
SYMATTR Value .param Vhigh=0.75 Vlow=0
TEXT -1488 1472 Left 2 !.tran 2540p
