Version 4
SHEET 1 5644 1652
WIRE 192 -192 -528 -192
WIRE 144 -80 -80 -80
WIRE 320 -80 144 -80
WIRE 144 -48 144 -80
WIRE 320 -48 320 -80
WIRE -80 -32 -80 -80
WIRE 256 32 256 -192
WIRE 272 32 256 32
WIRE -32 96 -384 96
WIRE 96 96 96 32
WIRE 96 96 -32 96
WIRE -384 112 -384 96
WIRE 144 112 144 48
WIRE 320 112 320 48
WIRE 320 112 144 112
WIRE 560 112 320 112
WIRE 144 128 144 112
WIRE 320 128 320 112
WIRE -528 288 -528 -192
WIRE -384 288 -528 288
WIRE 96 288 96 208
WIRE 96 288 -384 288
WIRE -384 320 -384 288
WIRE -32 384 -32 96
WIRE 208 384 -32 384
WIRE 272 384 272 208
FLAG -80 48 0
FLAG 144 224 0
FLAG 320 224 0
FLAG -384 192 0
FLAG -384 400 0
FLAG 560 192 0
SYMBOL voltage -80 -48 R0
WINDOW 123 0 0 Left 0
WINDOW 39 0 0 Left 0
SYMATTR InstName V1
SYMATTR Value 0.6
SYMBOL nmos 96 -48 R0
SYMATTR InstName M1
SYMATTR Value NMOSMOD
SYMBOL nmos 272 -48 R0
SYMATTR InstName M2
SYMATTR Value NMOSMOD
SYMBOL nmos 96 128 R0
SYMATTR InstName M3
SYMATTR Value NMOSMOD
SYMBOL nmos 272 128 R0
SYMATTR InstName M4
SYMATTR Value NMOSMOD
SYMBOL voltage -384 96 R0
WINDOW 123 0 0 Left 0
WINDOW 39 0 0 Left 0
SYMATTR InstName V3
SYMATTR Value PWL file=sel0.txt
SYMBOL voltage -384 304 R0
WINDOW 123 0 0 Left 0
WINDOW 39 0 0 Left 0
SYMATTR InstName V2
SYMATTR Value PWL file=sel1.txt
SYMBOL res 544 96 R0
SYMATTR InstName R1
SYMATTR Value 50
SYMBOL Digital\\inv 208 320 R0
SYMATTR InstName A1
SYMBOL Digital\\inv 192 -256 R0
SYMATTR InstName A2
TEXT -248 -312 Left 2 !.tran 2540p
TEXT -520 -400 Left 2 !.model NMOSMOD NMOS (LEVEL=1 VTO=0.15 KP=10m LAMBDA=0.02)\n.model PMOSMOD PMOS (LEVEL=1 VTO=-0.15 KP=10m LAMBDA=0.02)
